CM Square bent dipole array
CM sides are 7 meters long
CM real ground, loaded elements
cm plane excitation (to measure phase centers...)
CE dipole side is 2.5 meters long
GW, 100,  1,3.39,3.61,0,3.61,3.39,0,0.00127
GW, 101, 10,1.,3.61,0,3.39,3.61,0,0.00127
GW, 102, 10,3.61,3.39,0,3.61,1.,0,0.00127
GM,0,0,0,0,0,0,0,5.
GE
LD,5,0,0,0,6E7
EK
GN,0,0,0,0,6,1E-3
FR,0,1,0,0,29.0,0
EX,1,10,26,1,0,0,0,10,10
PT,0,100,1,1
XQ
EN
