CM Bunch of parallel dipoles set up as broadside array fed
CM with 1/4 lines (300 ohm twinlead) to force equal currents
CM Free space, ideal and real ground
CM wires loaded 6E7 mho-meter (copperish)
CM all wires 5 m off ground
CE dipole side is 2.5 meters long
GW, 100, 21,0,0,-2.5,    0,0,2.5,    0.00127
GW, 101, 21,2.5,0,-2.5, 2.5,0,2.5, 0.00127
GW, 102, 21,5.0,0,-2.5,  5,0,2.5,  0.00127
GW, 103, 21,7.5,0,-2.5, 7.5,0,2.5, 0.00127
GW, 104, 21,10,0,-2.5,    10,0,2.5,    0.00127
GW, 105, 21,12.5,0,-2.5, 12.5,0,2.5, 0.00127
GW, 106, 21,15.0,0,-2.5,  15,0,2.5,  0.00127
GW, 107, 21,17.5,0,-2.5, 17.5,0,2.5, 0.00127
GW, 108, 21,20,0,-2.5,   20,0,2.5,   0.00127
GM,0,0,0,0,0,0,0,5
GW, 9000,1,0,0,-1000, 0,.01,-1000,.00127
GE
LD,5,0,0,0,6E7
TL,100,11,9000,1,300,7.5
TL,101,11,9000,1,300,7.5
TL,102,11,9000,1,300,7.5
TL,103,11,9000,1,300,7.5
TL,104,11,9000,1,300,7.5
TL,105,11,9000,1,300,7.5
TL,106,11,9000,1,300,7.5
TL,107,11,9000,1,300,7.5
TL,108,11,9000,1,300,7.5
EK
FR,0,1,0,0,30,0
EX,0,9000,1,0,1,0
GN,-1
XQ
GN,1
XQ
GN,0,0,0,0,6,1E-3
XQ
EN
